sistemas/ieee24.cdf
 10/31/12 OBS STUDY           100.0  2012 W IEEE 24 Bus Test Case
=========1=========2=========3=========4=========5=========6=========7=========8=========9=========0=========1=========2=========3==
1234 NNNNNNNNNNNN AAZZZ TT X.XXXX+XXX.XX+XXXXX.XX+XXXXX.XX+XXXXX.XX+XXXX.XX XXXX.XX X.XXXX+XXXX.XX+XXXX.XX+XX.XXXX+XX.XXXX 1234 1234
BUS DATA FOLLOWS                            24 ITEMS
   1 Bus 1    132  1  1  3 1.000    0.0      0.0      0.0    260.2   -16.1   132.0  1.060     0.0     0.0   0.0    0.0        0
   2 Bus 2    132  1  1  2 1.000  -5.48     21.7     12.7     40.0    50.0   132.0  1.045    50.0   -40.0   0.0    0.0        0
   3 Bus 3    132  1  1  0 1.000  -7.96      2.4      1.2      0.0     0.0   132.0  0.0       0.0     0.0   0.0    0.0        0
   4 Bus 4    132  1  1  0 1.000  -9.62      7.6      1.6      0.0     0.0   132.0  0.0       0.0     0.0   0.0    0.0        0
   5 Bus 5    132  1  1  2 1.000 -14.37     94.2     19.0      0.0    37.0   132.0  1.010    40.0   -40.0   0.0    0.0        0
   6 Bus 6    132  1  1  0 1.000 -11.34      0.0      0.0      0.0     0.0   132.0  0.0       0.0     0.0   0.0    0.0        0
   7 Bus 7    132  1  1  0 1.000 -13.12     22.8     10.9      0.0     0.0   132.0  0.0       0.0     0.0   0.0    0.0        0
   8 Bus 8    132  1  1  2 1.000 -12.10     30.0     30.0      0.0    37.3   132.0  1.010    40.0   -10.0   0.0    0.0        0
   9 Bus 9    132  1  1  0 1.000 -14.38      0.0      0.0      0.0     0.0     1.0  0.0       0.0     0.0   0.0    0.0        0
  10 Bus 10    33  1  1  0 1.000 -15.97      5.8      2.0      0.0     0.0    33.0  0.0       0.0     0.0   0.0    0.19       0
  11 Bus 11    11  1  1  2 1.000 -14.39      0.0      0.0      0.0    16.2    11.0  1.082    24.0    -6.0   0.0    0.0        0
  12 Bus 12    33  1  1  0 1.000 -15.24     11.2      7.5      0.0     0.0    33.0  0.0       0.0     0.0   0.0    0.0        0
  13 Bus 13    11  1  1  2 1.000 -15.24      0.0      0.0      0.0    10.6    11.0  1.071    24.0    -6.0   0.0    0.0        0
  14 Bus 14    33  1  1  0 1.000 -16.13      6.2      1.6      0.0     0.0    33.0  0.0       0.0     0.0   0.0    0.0        0
  15 Bus 15    33  1  1  0 1.000 -16.22      8.2      2.5      0.0     0.0    33.0  0.0       0.0     0.0   0.0    0.0        0
  16 Bus 16    33  1  1  0 1.000 -15.83      3.5      1.8      0.0     0.0    33.0  0.0       0.0     0.0   0.0    0.0        0
  17 Bus 17    33  1  1  0 1.000 -16.14      9.0      5.8      0.0     0.0    33.0  0.0       0.0     0.0   0.0    0.0        0
  18 Bus 18    33  1  1  0 1.000 -16.82      3.2      0.9      0.0     0.0    33.0  0.0       0.0     0.0   0.0    0.0        0
  19 Bus 19    33  1  1  0 1.000 -17.00      9.5      3.4      0.0     0.0    33.0  0.0       0.0     0.0   0.0    0.0        0
  20 Bus 20    33  1  1  0 1.000 -16.80      2.2      0.7      0.0     0.0    33.0  0.0       0.0     0.0   0.0    0.0        0
  21 Bus 21    33  1  1  0 1.000 -16.42     17.5     11.2      0.0     0.0    33.0  0.0       0.0     0.0   0.0    0.0        0
  22 Bus 22    33  1  1  0 1.000 -16.41      0.0      0.0      0.0     0.0    33.0  0.0       0.0     0.0   0.0    0.0        0
  23 Bus 23    33  1  1  0 1.000 -16.61      3.2      1.6      0.0     0.0    33.0  0.0       0.0     0.0   0.0    0.0        0
  24 Bus 24    33  1  1  0 1.000 -16.78      8.7      6.7      0.0     0.0    33.0  0.0       0.0     0.0   0.0    0.043      0
-999
=========1=========2=========3=========4=========5=========6=========7=========8=========9=========0=========1=========2=========3==
1234 1234 AAZZZ C T+xx.xxxxxx+xx.xxxxxx xxx.xxxxx 12345 12345 12345 1234 1  x.xxxx +xxx.xx x.xxxx x.xxxx .xxxxx  x.xxxx  x.xxxx 1234
BRANCH DATA FOLLOWS                         34 ITEMS
   1    2  1  1 1 0  0.0000    1.0000      0.0        0     0     0    0 0  0.0       0.0 0.0    0.0     0.0    0.0   0.0
   1    3  1  1 1 0  0.0000    1.0000      0.0        0     0     0    0 0  0.0       0.0 0.0    0.0     0.0    0.0   0.0
   1    5  1  1 1 0  0.0000    1.0000      0.0        0     0     0    0 0  0.0       0.0 0.0    0.0     0.0    0.0   0.0
   2    4  1  1 1 0  0.0000    1.0000      0.0        0     0     0    0 0  0.0       0.0 0.0    0.0     0.0    0.0   0.0
   2    6  1  1 1 0  0.0000    1.0000      0.0        0     0     0    0 0  0.0       0.0 0.0    0.0     0.0    0.0   0.0
   3    9  1  1 1 0  0.0000    1.0000      0.0        0     0     0    0 0  0.0       0.0 0.0    0.0     0.0    0.0   0.0
   3   24  1  1 1 0  0.0000    1.0000      0.0        0     0     0    0 0  0.0       0.0 0.0    0.0     0.0    0.0   0.0
   4    9  1  1 1 0  0.0000    1.0000      0.0        0     0     0    0 0  0.0       0.0 0.0    0.0     0.0    0.0   0.0
   5   10  1  1 1 0  0.0000    1.0000      0.0        0     0     0    0 0  0.0       0.0 0.0    0.0     0.0    0.0   0.0
   6   10  1  1 1 0  0.0000    1.0000      0.0        0     0     0    0 0  0.0       0.0 0.0    0.0     0.0    0.0   0.0
   7    8  1  1 1 0  0.0000    1.0000      0.0        0     0     0    0 0  0.0       0.0 0.0    0.0     0.0    0.0   0.0
   8    9  1  1 1 0  0.0000    1.0000      0.0        0     0     0    0 0  0.0       0.0 0.0    0.0     0.0    0.0   0.0
   8   10  1  1 1 0  0.0000    1.0000      0.0        0     0     0    0 0  0.0       0.0 0.0    0.0     0.0    0.0   0.0
   9   11  1  1 1 0  0.0000    1.0000      0.0        0     0     0    0 0  0.0       0.0 0.0    0.0     0.0    0.0   0.0
   9   12  1  1 1 0  0.0000    1.0000      0.0        0     0     0    0 0  0.0       0.0 0.0    0.0     0.0    0.0   0.0
  10   11  1  1 1 0  0.0000    1.0000      0.0        0     0     0    0 0  0.0       0.0 0.0    0.0     0.0    0.0   0.0
  10   12  1  1 1 0  0.0000    1.0000      0.0        0     0     0    0 0  0.0       0.0 0.0    0.0     0.0    0.0   0.0
  11   13  1  1 1 0  0.0000    1.0000      0.0        0     0     0    0 0  0.0       0.0 0.0    0.0     0.0    0.0   0.0
  11   14  1  1 1 0  0.0000    1.0000      0.0        0     0     0    0 0  0.0       0.0 0.0    0.0     0.0    0.0   0.0
  12   13  1  1 1 0  0.0000    1.0000      0.0        0     0     0    0 0  0.0       0.0 0.0    0.0     0.0    0.0   0.0
  12   23  1  1 1 0  0.0000    1.0000      0.0        0     0     0    0 0  0.0       0.0 0.0    0.0     0.0    0.0   0.0
  13   23  1  1 1 0  0.0000    1.0000      0.0        0     0     0    0 0  0.0       0.0 0.0    0.0     0.0    0.0   0.0
  14   16  1  1 1 0  0.0000    1.0000      0.0        0     0     0    0 0  0.0       0.0 0.0    0.0     0.0    0.0   0.0
  15   16  1  1 1 0  0.0000    1.0000      0.0        0     0     0    0 0  0.0       0.0 0.0    0.0     0.0    0.0   0.0
  15   24  1  1 1 0  0.0000    1.0000      0.0        0     0     0    0 0  0.0       0.0 0.0    0.0     0.0    0.0   0.0
  15   21  1  1 1 0  0.0000    1.0000      0.0        0     0     0    0 0  0.0       0.0 0.0    0.0     0.0    0.0   0.0
  16   17  1  1 1 0  0.0000    1.0000      0.0        0     0     0    0 0  0.0       0.0 0.0    0.0     0.0    0.0   0.0
  16   19  1  1 1 0  0.0000    1.0000      0.0        0     0     0    0 0  0.0       0.0 0.0    0.0     0.0    0.0   0.0
  17   18  1  1 1 0  0.0000    1.0000      0.0        0     0     0    0 0  0.0       0.0 0.0    0.0     0.0    0.0   0.0
  17   22  1  1 1 0  0.0000    1.0000      0.0        0     0     0    0 0  0.0       0.0 0.0    0.0     0.0    0.0   0.0
  18   21  1  1 1 0  0.0000    1.0000      0.0        0     0     0    0 0  0.0       0.0 0.0    0.0     0.0    0.0   0.0
  19   20  1  1 1 0  0.0000    1.0000      0.0        0     0     0    0 0  0.0       0.0 0.0    0.0     0.0    0.0   0.0
  20   23  1  1 1 0  0.0000    1.0000      0.0        0     0     0    0 0  0.0       0.0 0.0    0.0     0.0    0.0   0.0
  21   22  1  1 1 0  0.0000    1.0000      0.0        0     0     0    0 0  0.0       0.0 0.0    0.0     0.0    0.0   0.0
-999
LOSS ZONES FOLLOWS                     0 ITEMS
-99
INTERCHANGE DATA FOLLOWS                 0 ITEMS
-9
TIE LINES FOLLOWS                     0 ITEMS
-999
END OF DATA
